@<TRIPOS>MOLECULE
N  -0.711854  1.268267  0.001222
    20    21     1     0     0
SMALL
NO_CHARGES
****
Generated from the CSD

@<TRIPOS>ATOM
     1 N       -0.7119   1.2683   0.0012   N.ar      1 RES1   0.0000
     2 C       -0.6277   2.5963   0.0013   C.ar      1 RES1   0.0000
     3 C       -1.7322   3.4402   0.0002   C.ar      1 RES1   0.0000
     4 C       -2.9901   2.8556  -0.0010   C.ar      1 RES1   0.0000
     5 C       -3.0912   1.4713  -0.0011   C.ar      1 RES1   0.0000
     6 C       -1.9258   0.6998   0.0000   C.ar      1 RES1   0.0000
     7 C       -1.9670  -0.7981   0.0000   C.ar      1 RES1   0.0000
     8 C       -3.1732  -1.5040   0.0003   C.ar      1 RES1   0.0000
     9 C       -3.1487  -2.8918   0.0003   C.ar      1 RES1   0.0000
    10 C       -1.9248  -3.5449  -0.0001   C.ar      1 RES1   0.0000
    11 C       -0.7756  -2.7632  -0.0003   C.ar      1 RES1   0.0000
    12 N       -0.7863  -1.4326  -0.0003   N.ar      1 RES1   0.0000
    13 H        0.3780   3.0123   0.0023   H         1 RES1   0.0000
    14 H       -1.6033   4.5170   0.0003   H         1 RES1   0.0000
    15 H       -3.8877   3.4662  -0.0020   H         1 RES1   0.0000
    16 H       -4.0714   1.0121  -0.0023   H         1 RES1   0.0000
    17 H       -4.1265  -0.9913   0.0008   H         1 RES1   0.0000
    18 H       -4.0785  -3.4521   0.0006   H         1 RES1   0.0000
    19 H       -1.8557  -4.6271  -0.0001   H         1 RES1   0.0000
    20 H        0.2056  -3.2341  -0.0006   H         1 RES1   0.0000
@<TRIPOS>BOND
     1     1     2   ar
     2     1     6   ar
     3     2     3   ar
     4     2    13    1
     5     3     4   ar
     6     3    14    1
     7     4     5   ar
     8     4    15    1
     9     5     6   ar
    10     5    16    1
    11     6     7    1
    12     7     8   ar
    13     7    12   ar
    14     8     9   ar
    15     8    17    1
    16     9    10   ar
    17     9    18    1
    18    10    11   ar
    19    10    19    1
    20    11    12   ar
    21    11    20    1
@<TRIPOS>SUBSTRUCTURE
     1 RES1        1 GROUP             0 ****  ****    0  
