@<TRIPOS>MOLECULE
N  -0.832907  1.460108  0.313483
    32    35     1     0     0
SMALL
NO_CHARGES
****
Generated from the CSD

@<TRIPOS>ATOM
     1 N       -0.8329   1.4601   0.3135   N.ar      1 RES1   0.0000
     2 C       -0.7615   2.8184   0.2914   C.ar      1 RES1   0.0000
     3 C       -1.8779   3.6356  -0.0270   C.ar      1 RES1   0.0000
     4 C       -3.0939   2.9804  -0.3313   C.ar      1 RES1   0.0000
     5 C       -3.1507   1.6158  -0.3000   C.ar      1 RES1   0.0000
     6 C       -1.9808   0.8811   0.0330   C.ar      1 RES1   0.0000
     7 C       -2.0165  -0.6135   0.0659   C.ar      1 RES1   0.0000
     8 C       -3.2086  -1.2908   0.4392   C.ar      1 RES1   0.0000
     9 C       -3.2169  -2.6566   0.4696   C.ar      1 RES1   0.0000
    10 C       -2.0452  -3.3697   0.1245   C.ar      1 RES1   0.0000
    11 C       -0.9021  -2.6073  -0.2325   C.ar      1 RES1   0.0000
    12 N       -0.9083  -1.2472  -0.2533   N.ar      1 RES1   0.0000
    13 H       -3.9683   3.5698  -0.5924   H         1 RES1   0.0000
    14 H       -4.0691   1.0967  -0.5480   H         1 RES1   0.0000
    15 H       -4.0917  -0.7281   0.7180   H         1 RES1   0.0000
    16 H       -4.1094  -3.2031   0.7609   H         1 RES1   0.0000
    17 C       -1.9669  -4.7845   0.1241   C.ar      1 RES1   0.0000
    18 C        0.2939  -3.2842  -0.5846   C.ar      1 RES1   0.0000
    19 C       -0.7987  -5.4119  -0.2195   C.ar      1 RES1   0.0000
    20 H       -2.8478  -5.3574   0.3997   H         1 RES1   0.0000
    21 C        0.3419  -4.6530  -0.5769   C.ar      1 RES1   0.0000
    22 H        1.1580  -2.6860  -0.8556   H         1 RES1   0.0000
    23 C        0.4772   3.4363   0.6017   C.ar      1 RES1   0.0000
    24 C       -1.7311   5.0449  -0.0303   C.ar      1 RES1   0.0000
    25 C       -0.5228   5.6147   0.2726   C.ar      1 RES1   0.0000
    26 C        0.5912   4.8011   0.5913   C.ar      1 RES1   0.0000
    27 H        1.3201   2.7967   0.8434   H         1 RES1   0.0000
    28 H        1.5418   5.2686   0.8289   H         1 RES1   0.0000
    29 H       -0.4128   6.6946   0.2700   H         1 RES1   0.0000
    30 H       -2.5922   5.6600  -0.2761   H         1 RES1   0.0000
    31 H       -0.7411  -6.4959  -0.2197   H         1 RES1   0.0000
    32 H        1.2601  -5.1659  -0.8464   H         1 RES1   0.0000
@<TRIPOS>BOND
     1     1     2   ar
     2     1     6   ar
     3     2     3   ar
     4     2    23   ar
     5     3     4   ar
     6     3    24   ar
     7     4     5   ar
     8     4    13    1
     9     5     6   ar
    10     5    14    1
    11     6     7    1
    12     7     8   ar
    13     7    12   ar
    14     8     9   ar
    15     8    15    1
    16     9    10   ar
    17     9    16    1
    18    10    11   ar
    19    10    17   ar
    20    11    12   ar
    21    11    18   ar
    22    17    19   ar
    23    17    20    1
    24    18    21   ar
    25    18    22    1
    26    19    21   ar
    27    19    31    1
    28    21    32    1
    29    23    26   ar
    30    23    27    1
    31    24    25   ar
    32    24    30    1
    33    25    26   ar
    34    25    29    1
    35    26    28    1
@<TRIPOS>SUBSTRUCTURE
     1 RES1        1 GROUP             0 ****  ****    0  
