@<TRIPOS>MOLECULE
N  -1.068885  1.412818  0.139356
    50    51     1     0     0
SMALL
NO_CHARGES
****
Generated from the CSD

@<TRIPOS>ATOM
     1 N       -1.0689   1.4128   0.1394   N.ar      1 RES1   0.0000
     2 C       -1.0284   2.7378  -0.0248   C.ar      1 RES1   0.0000
     3 C       -2.1509   3.4640  -0.4351   C.ar      1 RES1   0.0000
     4 C       -3.3352   2.7881  -0.6771   C.ar      1 RES1   0.0000
     5 C       -3.3756   1.4101  -0.5038   C.ar      1 RES1   0.0000
     6 C       -2.2159   0.7577  -0.0907   C.ar      1 RES1   0.0000
     7 C       -2.1972  -0.7216   0.1104   C.ar      1 RES1   0.0000
     8 C       -3.3321  -1.3987   0.5511   C.ar      1 RES1   0.0000
     9 C       -3.2582  -2.7756   0.7218   C.ar      1 RES1   0.0000
    10 C       -2.0658  -3.4258   0.4512   C.ar      1 RES1   0.0000
    11 C       -0.9689  -2.6753   0.0161   C.ar      1 RES1   0.0000
    12 N       -1.0423  -1.3518  -0.1480   N.ar      1 RES1   0.0000
    13 C        0.2925   3.4240   0.2633   C.3       1 RES1   0.0000
    14 H       -2.0895   4.5394  -0.5644   H         1 RES1   0.0000
    15 H       -4.2200   3.3252  -1.0053   H         1 RES1   0.0000
    16 H       -4.2836   0.8540  -0.7064   H         1 RES1   0.0000
    17 H       -4.2462  -0.8616   0.7759   H         1 RES1   0.0000
    18 H       -4.1232  -3.3314   1.0708   H         1 RES1   0.0000
    19 H       -1.9788  -4.4998   0.5774   H         1 RES1   0.0000
    20 C        0.3686  -3.3278  -0.2745   C.3       1 RES1   0.0000
    21 H        1.0212  -2.5243  -0.6371   H         1 RES1   0.0000
    22 C        0.2628  -4.3922  -1.3785   C.3       1 RES1   0.0000
    23 C        0.9805  -3.8834   1.0261   C.3       1 RES1   0.0000
    24 H        0.9831   2.6281   0.5679   H         1 RES1   0.0000
    25 C        0.1461   4.4035   1.4433   C.3       1 RES1   0.0000
    26 C        0.8672   4.0979  -0.9940   C.3       1 RES1   0.0000
    27 H        0.9254  -3.1016   1.7933   H         1 RES1   0.0000
    28 C        2.4309  -4.3400   0.8937   C.3       1 RES1   0.0000
    29 H        0.3637  -4.7153   1.3898   H         1 RES1   0.0000
    30 H       -0.3752   3.8866   2.2582   H         1 RES1   0.0000
    31 H       -0.5011   5.2379   1.1445   H         1 RES1   0.0000
    32 C        1.4697   4.9473   1.9743   C.3       1 RES1   0.0000
    33 H        3.0632  -3.5349   0.5019   H         1 RES1   0.0000
    34 H        2.5355  -5.2014   0.2272   H         1 RES1   0.0000
    35 H        2.8326  -4.6318   1.8699   H         1 RES1   0.0000
    36 H        2.1458   4.1320   2.2566   H         1 RES1   0.0000
    37 H        1.3031   5.5632   2.8645   H         1 RES1   0.0000
    38 H        1.9870   5.5705   1.2386   H         1 RES1   0.0000
    39 C        1.1191   3.1317  -2.1479   C.3       1 RES1   0.0000
    40 H        1.8106   4.5869  -0.7290   H         1 RES1   0.0000
    41 H        0.1875   4.8962  -1.3192   H         1 RES1   0.0000
    42 C       -0.2541  -3.8490  -2.7075   C.3       1 RES1   0.0000
    43 H       -0.3838  -5.2097  -1.0342   H         1 RES1   0.0000
    44 H        1.2533  -4.8314  -1.5366   H         1 RES1   0.0000
    45 H        1.8024   2.3288  -1.8480   H         1 RES1   0.0000
    46 H        1.5693   3.6503  -3.0009   H         1 RES1   0.0000
    47 H        0.1925   2.6639  -2.4968   H         1 RES1   0.0000
    48 H       -1.2724  -3.4563  -2.6179   H         1 RES1   0.0000
    49 H       -0.2683  -4.6332  -3.4716   H         1 RES1   0.0000
    50 H        0.3830  -3.0367  -3.0760   H         1 RES1   0.0000
@<TRIPOS>BOND
     1     1     2   ar
     2     1     6   ar
     3     2     3   ar
     4     2    13    1
     5     3     4   ar
     6     3    14    1
     7     4     5   ar
     8     4    15    1
     9     5     6   ar
    10     5    16    1
    11     6     7    1
    12     7     8   ar
    13     7    12   ar
    14     8     9   ar
    15     8    17    1
    16     9    10   ar
    17     9    18    1
    18    10    11   ar
    19    10    19    1
    20    11    12   ar
    21    11    20    1
    22    13    24    1
    23    13    25    1
    24    13    26    1
    25    20    21    1
    26    20    22    1
    27    20    23    1
    28    22    42    1
    29    22    43    1
    30    22    44    1
    31    23    27    1
    32    23    28    1
    33    23    29    1
    34    25    30    1
    35    25    31    1
    36    25    32    1
    37    26    39    1
    38    26    40    1
    39    26    41    1
    40    28    33    1
    41    28    34    1
    42    28    35    1
    43    32    36    1
    44    32    37    1
    45    32    38    1
    46    39    45    1
    47    39    46    1
    48    39    47    1
    49    42    48    1
    50    42    49    1
    51    42    50    1
@<TRIPOS>SUBSTRUCTURE
     1 RES1        1 GROUP             0 ****  ****    0  
