@<TRIPOS>MOLECULE
C  4.656687  -1.495717  0.267059
    29    31     1     0     0
SMALL
NO_CHARGES
****
Generated from the CSD

@<TRIPOS>ATOM
     1 C        4.6567  -1.4957   0.2671   C.ar      1 RES1   0.0000
     2 C        3.4378  -1.8713   0.8201   C.ar      1 RES1   0.0000
     3 N        2.3341  -1.1286   0.7505   N.ar      1 RES1   0.0000
     4 C        2.4037   0.0481   0.1143   C.ar      1 RES1   0.0000
     5 C        1.1501   0.8576   0.0537   C.ar      1 RES1   0.0000
     6 C        1.1944   2.2532   0.0620   C.ar      1 RES1   0.0000
     7 C        0.0000   2.9553   0.0026   C.ar      1 RES1   0.0000
     8 C       -1.1944   2.2533  -0.0578   C.ar      1 RES1   0.0000
     9 C       -1.1501   0.8577  -0.0513   C.ar      1 RES1   0.0000
    10 C       -2.4037   0.0483  -0.1128   C.ar      1 RES1   0.0000
    11 C       -3.5827   0.5060   0.4781   C.ar      1 RES1   0.0000
    12 C       -4.7248  -0.2792   0.3982   C.ar      1 RES1   0.0000
    13 C       -4.6569  -1.4950  -0.2678   C.ar      1 RES1   0.0000
    14 C       -3.4380  -1.8699  -0.8214   C.ar      1 RES1   0.0000
    15 N       -2.3343  -1.1274  -0.7507   N.ar      1 RES1   0.0000
    16 N       -0.0000   0.1804   0.0008   N.ar      1 RES1   0.0000
    17 C        3.5828   0.5066  -0.4759   C.ar      1 RES1   0.0000
    18 C        4.7247  -0.2790  -0.3971   C.ar      1 RES1   0.0000
    19 H        5.5217  -2.1442   0.3543   H         1 RES1   0.0000
    20 H        3.3453  -2.8179   1.3483   H         1 RES1   0.0000
    21 H        2.1404   2.7778   0.1298   H         1 RES1   0.0000
    22 H        0.0000   4.0407   0.0033   H         1 RES1   0.0000
    23 H       -2.1404   2.7779  -0.1248   H         1 RES1   0.0000
    24 H       -5.6510   0.0531   0.8567   H         1 RES1   0.0000
    25 H       -5.5220  -2.1431  -0.3561   H         1 RES1   0.0000
    26 H       -3.3457  -2.8158  -1.3509   H         1 RES1   0.0000
    27 H        5.6510   0.0539  -0.8552   H         1 RES1   0.0000
    28 H        3.6019   1.4523  -1.0054   H         1 RES1   0.0000
    29 H       -3.6016   1.4509   1.0093   H         1 RES1   0.0000
@<TRIPOS>BOND
     1     1     2   ar
     2     1    18   ar
     3     1    19    1
     4     2     3   ar
     5     2    20    1
     6     3     4   ar
     7     4     5    1
     8     4    17   ar
     9     5     6   ar
    10     5    16   ar
    11     6     7   ar
    12     6    21    1
    13     7     8   ar
    14     7    22    1
    15     8     9   ar
    16     8    23    1
    17     9    10    1
    18     9    16   ar
    19    10    11   ar
    20    10    15   ar
    21    11    12   ar
    22    11    29    1
    23    12    13   ar
    24    12    24    1
    25    13    14   ar
    26    13    25    1
    27    14    15   ar
    28    14    26    1
    29    17    18   ar
    30    17    28    1
    31    18    27    1
@<TRIPOS>SUBSTRUCTURE
     1 RES1        1 GROUP             0 ****  ****    0  
