@<TRIPOS>MOLECULE
C     0.995245    4.108244   -1.098447
    65    67     1     0     0
SMALL
NO_CHARGES
****
Generated from the CSD

@<TRIPOS>ATOM
     1 C        0.9952   4.1082  -1.0984   C.3       1 RES1   0.0000
     2 C        0.0325   3.6241  -0.0008   C.3       1 RES1   0.0000
     3 C        0.5367   4.1086   1.3695   C.3       1 RES1   0.0000
     4 C       -1.3462   4.2403  -0.2571   C.3       1 RES1   0.0000
     5 C       -0.0081   2.0946  -0.0065   C.ar      1 RES1   0.0000
     6 C       -1.1746   1.3647  -0.2122   C.ar      1 RES1   0.0000
     7 C       -1.1372  -0.0321  -0.1953   C.ar      1 RES1   0.0000
     8 C       -2.3837  -0.8290  -0.4091   C.ar      1 RES1   0.0000
     9 C       -3.6188  -0.3488   0.0339   C.ar      1 RES1   0.0000
    10 C       -4.7788  -1.0933  -0.1679   C.ar      1 RES1   0.0000
    11 C       -6.1611  -0.6316   0.2963   C.3       1 RES1   0.0000
    12 C       -6.7325  -1.6653   1.2816   C.3       1 RES1   0.0000
    13 C       -6.1142   0.7316   0.9931   C.3       1 RES1   0.0000
    14 C       -7.0904  -0.5249  -0.9249   C.3       1 RES1   0.0000
    15 C       -4.6220  -2.3169  -0.8247   C.ar      1 RES1   0.0000
    16 C       -3.3579  -2.7206  -1.2250   C.ar      1 RES1   0.0000
    17 N       -2.2493  -2.0059  -1.0288   N.ar      1 RES1   0.0000
    18 N       -0.0116  -0.7198  -0.0023   N.ar      1 RES1   0.0000
    19 C        1.1205  -0.0340   0.1892   C.ar      1 RES1   0.0000
    20 C        2.3628  -0.8365   0.4051   C.ar      1 RES1   0.0000
    21 C        3.6004  -0.3634  -0.0383   C.ar      1 RES1   0.0000
    22 C        4.7570  -1.1120   0.1679   C.ar      1 RES1   0.0000
    23 C        6.1421  -0.6576  -0.2953   C.3       1 RES1   0.0000
    24 C        6.7123  -1.6979  -1.2744   C.3       1 RES1   0.0000
    25 C        6.1018   0.7024  -0.9985   C.3       1 RES1   0.0000
    26 C        7.0686  -0.5487   0.9277   C.3       1 RES1   0.0000
    27 C        4.5939  -2.3329   0.8283   C.ar      1 RES1   0.0000
    28 C        3.3276  -2.7300   1.2279   C.ar      1 RES1   0.0000
    29 N        2.2223  -2.0109   1.0281   N.ar      1 RES1   0.0000
    30 C        1.1596   1.3576   0.2017   C.ar      1 RES1   0.0000
    31 H        0.6627   3.7776  -2.0883   H         1 RES1   0.0000
    32 H        2.0126   3.7373  -0.9415   H         1 RES1   0.0000
    33 H        1.0359   5.2029  -1.1032   H         1 RES1   0.0000
    34 H        0.5714   5.2033   1.3882   H         1 RES1   0.0000
    35 H       -0.1285   3.7772   2.1741   H         1 RES1   0.0000
    36 H        1.5431   3.7393   1.5883   H         1 RES1   0.0000
    37 H       -1.7474   3.9514  -1.2340   H         1 RES1   0.0000
    38 H       -2.0717   3.9519   0.5107   H         1 RES1   0.0000
    39 H       -1.2646   5.3317  -0.2423   H         1 RES1   0.0000
    40 H       -2.1142   1.8662  -0.4020   H         1 RES1   0.0000
    41 H       -6.0905  -1.7665   2.1632   H         1 RES1   0.0000
    42 H       -7.7254  -1.3498   1.6202   H         1 RES1   0.0000
    43 H       -6.8346  -2.6527   0.8215   H         1 RES1   0.0000
    44 H       -5.7366   1.5167   0.3298   H         1 RES1   0.0000
    45 H       -7.1249   1.0168   1.3020   H         1 RES1   0.0000
    46 H       -5.4873   0.7102   1.8906   H         1 RES1   0.0000
    47 H       -7.1987  -1.4846  -1.4391   H         1 RES1   0.0000
    48 H       -8.0877  -0.2007  -0.6083   H         1 RES1   0.0000
    49 H       -6.7102   0.2057  -1.6471   H         1 RES1   0.0000
    50 H       -5.4711  -2.9613  -1.0247   H         1 RES1   0.0000
    51 H        6.0718  -1.8013  -2.1570   H         1 RES1   0.0000
    52 H        7.7069  -1.3873  -1.6123   H         1 RES1   0.0000
    53 H        6.8102  -2.6834  -0.8094   H         1 RES1   0.0000
    54 H        5.7261   1.4921  -0.3395   H         1 RES1   0.0000
    55 H        7.1142   0.9823  -1.3068   H         1 RES1   0.0000
    56 H        5.4765   0.6794  -1.8971   H         1 RES1   0.0000
    57 H        7.1720  -1.5064   1.4466   H         1 RES1   0.0000
    58 H        8.0679  -0.2296   0.6122   H         1 RES1   0.0000
    59 H        6.6893   0.1866   1.6456   H         1 RES1   0.0000
    60 H        5.4399  -2.9804   1.0314   H         1 RES1   0.0000
    61 H        2.0992   1.8638   0.3889   H         1 RES1   0.0000
    62 H       -3.2299  -3.6730  -1.7356   H         1 RES1   0.0000
    63 H        3.1946  -3.6803   1.7410   H         1 RES1   0.0000
    64 H       -3.6579   0.5997   0.5531   H         1 RES1   0.0000
    65 H        3.6441   0.5831  -0.5609   H         1 RES1   0.0000
@<TRIPOS>BOND
     1     1     2    1
     2     1    31    1
     3     1    32    1
     4     1    33    1
     5     2     3    1
     6     2     4    1
     7     2     5    1
     8     3    34    1
     9     3    35    1
    10     3    36    1
    11     4    37    1
    12     4    38    1
    13     4    39    1
    14     5     6   ar
    15     5    30   ar
    16     6     7   ar
    17     6    40    1
    18     7     8    1
    19     7    18   ar
    20     8     9   ar
    21     8    17   ar
    22     9    10   ar
    23     9    64    1
    24    10    11    1
    25    10    15   ar
    26    11    12    1
    27    11    13    1
    28    11    14    1
    29    12    41    1
    30    12    42    1
    31    12    43    1
    32    13    44    1
    33    13    45    1
    34    13    46    1
    35    14    47    1
    36    14    48    1
    37    14    49    1
    38    15    16   ar
    39    15    50    1
    40    16    17   ar
    41    16    62    1
    42    18    19   ar
    43    19    20    1
    44    19    30   ar
    45    20    21   ar
    46    20    29   ar
    47    21    22   ar
    48    21    65    1
    49    22    23    1
    50    22    27   ar
    51    23    24    1
    52    23    25    1
    53    23    26    1
    54    24    51    1
    55    24    52    1
    56    24    53    1
    57    25    54    1
    58    25    55    1
    59    25    56    1
    60    26    57    1
    61    26    58    1
    62    26    59    1
    63    27    28   ar
    64    27    60    1
    65    28    29   ar
    66    28    63    1
    67    30    61    1
@<TRIPOS>SUBSTRUCTURE
     1 RES1        1 GROUP             0 ****  ****    0  
