@<TRIPOS>MOLECULE
C  -7.383690  0.383603  -0.083841
    43    46     1     0     0
SMALL
NO_CHARGES
****
Generated from the CSD

@<TRIPOS>ATOM
     1 C       -7.3837   0.3836  -0.0838   C.3       1 RES1   0.0000
     2 O       -6.5046  -0.6173   0.4079   O.3       1 RES1   0.0000
     3 C       -5.1735  -0.4237   0.2637   C.ar      1 RES1   0.0000
     4 C       -4.3473  -1.4286   0.7784   C.ar      1 RES1   0.0000
     5 C       -2.9731  -1.3205   0.6784   C.ar      1 RES1   0.0000
     6 C       -2.3746  -0.2087   0.0677   C.ar      1 RES1   0.0000
     7 C       -0.9018  -0.0937  -0.0328   C.ar      1 RES1   0.0000
     8 C       -0.0906  -1.2204  -0.1743   C.ar      1 RES1   0.0000
     9 C        1.2927  -1.0704  -0.2547   C.ar      1 RES1   0.0000
    10 C        2.1796  -2.2631  -0.4012   C.ar      1 RES1   0.0000
    11 C        1.8428  -3.4839   0.1861   C.ar      1 RES1   0.0000
    12 C        2.6971  -4.5665   0.0263   C.ar      1 RES1   0.0000
    13 C        3.8597  -4.3992  -0.7130   C.ar      1 RES1   0.0000
    14 C        4.1142  -3.1451  -1.2562   C.ar      1 RES1   0.0000
    15 N        3.3042  -2.0978  -1.1095   N.ar      1 RES1   0.0000
    16 N        1.8919   0.1231  -0.2208   N.ar      1 RES1   0.0000
    17 C        1.1260   1.2105  -0.0946   C.ar      1 RES1   0.0000
    18 C        1.8292   2.5276  -0.0519   C.ar      1 RES1   0.0000
    19 C        1.2445   3.6699  -0.6012   C.ar      1 RES1   0.0000
    20 C        1.9328   4.8740  -0.5412   C.ar      1 RES1   0.0000
    21 C        3.1815   4.9024   0.0640   C.ar      1 RES1   0.0000
    22 C        3.6854   3.7138   0.5794   C.ar      1 RES1   0.0000
    23 N        3.0365   2.5515   0.5275   N.ar      1 RES1   0.0000
    24 C       -0.2618   1.1457   0.0115   C.ar      1 RES1   0.0000
    25 C       -3.2134   0.7845  -0.4403   C.ar      1 RES1   0.0000
    26 C       -4.5980   0.6885  -0.3514   C.ar      1 RES1   0.0000
    27 H       -7.2127   1.3452   0.4125   H         1 RES1   0.0000
    28 H       -7.2813   0.5098  -1.1673   H         1 RES1   0.0000
    29 H       -8.3921   0.0359   0.1435   H         1 RES1   0.0000
    30 H       -4.8057  -2.2851   1.2619   H         1 RES1   0.0000
    31 H       -2.3531  -2.1042   1.1023   H         1 RES1   0.0000
    32 H       -0.5344  -2.2054  -0.2555   H         1 RES1   0.0000
    33 H        2.4593  -5.5236   0.4801   H         1 RES1   0.0000
    34 H        4.5583  -5.2149  -0.8652   H         1 RES1   0.0000
    35 H        5.0155  -2.9750  -1.8413   H         1 RES1   0.0000
    36 H        1.5009   5.7737  -0.9683   H         1 RES1   0.0000
    37 H        3.7576   5.8187   0.1344   H         1 RES1   0.0000
    38 H        4.6608   3.6965   1.0611   H         1 RES1   0.0000
    39 H       -0.8356   2.0524   0.1626   H         1 RES1   0.0000
    40 H       -2.7857   1.6485  -0.9394   H         1 RES1   0.0000
    41 H       -5.2125   1.4770  -0.7680   H         1 RES1   0.0000
    42 H        0.2763   3.6135  -1.0857   H         1 RES1   0.0000
    43 H        0.9377  -3.5799   0.7750   H         1 RES1   0.0000
@<TRIPOS>BOND
     1     1     2    1
     2     1    27    1
     3     1    28    1
     4     1    29    1
     5     2     3    1
     6     3     4   ar
     7     3    26   ar
     8     4     5   ar
     9     4    30    1
    10     5     6   ar
    11     5    31    1
    12     6     7    1
    13     6    25   ar
    14     7     8   ar
    15     7    24   ar
    16     8     9   ar
    17     8    32    1
    18     9    10    1
    19     9    16   ar
    20    10    11   ar
    21    10    15   ar
    22    11    12   ar
    23    11    43    1
    24    12    13   ar
    25    12    33    1
    26    13    14   ar
    27    13    34    1
    28    14    15   ar
    29    14    35    1
    30    16    17   ar
    31    17    18    1
    32    17    24   ar
    33    18    19   ar
    34    18    23   ar
    35    19    20   ar
    36    19    42    1
    37    20    21   ar
    38    20    36    1
    39    21    22   ar
    40    21    37    1
    41    22    23   ar
    42    22    38    1
    43    24    39    1
    44    25    26   ar
    45    25    40    1
    46    26    41    1
@<TRIPOS>SUBSTRUCTURE
     1 RES1        1 GROUP             0 ****  ****    0  
