@<TRIPOS>MOLECULE
C  -6.624027  -0.626336  0.002080
    42    45     1     0     0
SMALL
NO_CHARGES
****
Generated from the CSD

@<TRIPOS>ATOM
     1 C       -6.6240  -0.6263   0.0021   C.3       1 RES1   0.0000
     2 C       -5.1243  -0.5049  -0.0029   C.ar      1 RES1   0.0000
     3 C       -4.3173  -1.4850  -0.5797   C.ar      1 RES1   0.0000
     4 C       -2.9322  -1.3692  -0.5793   C.ar      1 RES1   0.0000
     5 C       -2.3070  -0.2614  -0.0021   C.ar      1 RES1   0.0000
     6 C       -0.8301  -0.1331  -0.0012   C.ar      1 RES1   0.0000
     7 C       -0.0033  -1.2512   0.1084   C.ar      1 RES1   0.0000
     8 C        1.3809  -1.0882   0.0969   C.ar      1 RES1   0.0000
     9 C        2.2884  -2.2692   0.2109   C.ar      1 RES1   0.0000
    10 C        1.9304  -3.5045  -0.3318   C.ar      1 RES1   0.0000
    11 C        2.8050  -4.5750  -0.2040   C.ar      1 RES1   0.0000
    12 C        4.0084  -4.3816   0.4597   C.ar      1 RES1   0.0000
    13 C        4.2812  -3.1146   0.9627   C.ar      1 RES1   0.0000
    14 N        3.4521  -2.0786   0.8462   N.ar      1 RES1   0.0000
    15 N        1.9637   0.1096   0.0002   N.ar      1 RES1   0.0000
    16 C        1.1832   1.1891  -0.0971   C.ar      1 RES1   0.0000
    17 C        1.8735   2.5089  -0.2101   C.ar      1 RES1   0.0000
    18 C        1.3076   3.6637   0.3328   C.ar      1 RES1   0.0000
    19 C        1.9847   4.8690   0.2061   C.ar      1 RES1   0.0000
    20 C        3.2038   4.8863  -0.4568   C.ar      1 RES1   0.0000
    21 C        3.6913   3.6855  -0.9602   C.ar      1 RES1   0.0000
    22 N        3.0531   2.5221  -0.8446   N.ar      1 RES1   0.0000
    23 C       -0.2084   1.1109  -0.1100   C.ar      1 RES1   0.0000
    24 C       -3.1150   0.7249   0.5758   C.ar      1 RES1   0.0000
    25 C       -4.4964   0.6018   0.5756   C.ar      1 RES1   0.0000
    26 H       -4.7795  -2.3524  -1.0429   H         1 RES1   0.0000
    27 H       -2.3346  -2.1415  -1.0536   H         1 RES1   0.0000
    28 H       -0.4340  -2.2373   0.2360   H         1 RES1   0.0000
    29 H        2.5507  -5.5431  -0.6242   H         1 RES1   0.0000
    30 H        4.7241  -5.1870   0.5842   H         1 RES1   0.0000
    31 H        5.2145  -2.9242   1.4886   H         1 RES1   0.0000
    32 H        1.5670   5.7785   0.6265   H         1 RES1   0.0000
    33 H        3.7701   5.8030  -0.5804   H         1 RES1   0.0000
    34 H        4.6437   3.6591  -1.4853   H         1 RES1   0.0000
    35 H       -0.8024   2.0081  -0.2377   H         1 RES1   0.0000
    36 H       -2.6580   1.5879   1.0501   H         1 RES1   0.0000
    37 H       -5.1010   1.3772   1.0390   H         1 RES1   0.0000
    38 H       -6.9507  -1.5466  -0.4894   H         1 RES1   0.0000
    39 H       -7.0913   0.2185  -0.5160   H         1 RES1   0.0000
    40 H       -7.0166  -0.6313   1.0250   H         1 RES1   0.0000
    41 H        0.3632   3.6168   0.8631   H         1 RES1   0.0000
    42 H        0.9924  -3.6213  -0.8626   H         1 RES1   0.0000
@<TRIPOS>BOND
     1     1     2    1
     2     1    38    1
     3     1    39    1
     4     1    40    1
     5     2     3   ar
     6     2    25   ar
     7     3     4   ar
     8     3    26    1
     9     4     5   ar
    10     4    27    1
    11     5     6    1
    12     5    24   ar
    13     6     7   ar
    14     6    23   ar
    15     7     8   ar
    16     7    28    1
    17     8     9    1
    18     8    15   ar
    19     9    10   ar
    20     9    14   ar
    21    10    11   ar
    22    10    42    1
    23    11    12   ar
    24    11    29    1
    25    12    13   ar
    26    12    30    1
    27    13    14   ar
    28    13    31    1
    29    15    16   ar
    30    16    17    1
    31    16    23   ar
    32    17    18   ar
    33    17    22   ar
    34    18    19   ar
    35    18    41    1
    36    19    20   ar
    37    19    32    1
    38    20    21   ar
    39    20    33    1
    40    21    22   ar
    41    21    34    1
    42    23    35    1
    43    24    25   ar
    44    24    36    1
    45    25    37    1
@<TRIPOS>SUBSTRUCTURE
     1 RES1        1 GROUP             0 ****  ****    0  
