@<TRIPOS>MOLECULE
N  0.642147  -3.794114  -0.358074
    22    23     1     0     0
SMALL
NO_CHARGES
****
Generated from the CSD

@<TRIPOS>ATOM
     1 N        0.6421  -3.7941  -0.3581   N.pl3     1 RES1   0.0000
     2 C        0.2316  -2.5706   0.1145   C.2       1 RES1   0.0000
     3 N       -0.9168  -2.3008   0.6126   N.2       1 RES1   0.0000
     4 N        0.8827  -0.2598  -0.0115   N.ar      1 RES1   0.0000
     5 C        1.2931  -1.5034   0.0972   C.ar      1 RES1   0.0000
     6 C        2.6623  -1.8602   0.2080   C.ar      1 RES1   0.0000
     7 C        3.6075  -0.8727   0.2028   C.ar      1 RES1   0.0000
     8 C        3.2044   0.4767   0.0815   C.ar      1 RES1   0.0000
     9 C        4.1161   1.5617   0.0631   C.ar      1 RES1   0.0000
    10 C        3.6580   2.8467  -0.0567   C.ar      1 RES1   0.0000
    11 C        2.2695   3.1044  -0.1627   C.ar      1 RES1   0.0000
    12 C        1.3664   2.0752  -0.1470   C.ar      1 RES1   0.0000
    13 C        1.8117   0.7340  -0.0231   C.ar      1 RES1   0.0000
    14 H       -0.0871  -4.4828  -0.5045   H         1 RES1   0.0000
    15 H        2.9454  -2.9005   0.3159   H         1 RES1   0.0000
    16 H        4.6635  -1.1098   0.2955   H         1 RES1   0.0000
    17 H        5.1791   1.3534   0.1449   H         1 RES1   0.0000
    18 H        4.3580   3.6763  -0.0711   H         1 RES1   0.0000
    19 H        1.9236   4.1292  -0.2572   H         1 RES1   0.0000
    20 H        0.2987   2.2530  -0.2269   H         1 RES1   0.0000
    21 H        1.3628  -3.8097  -1.0692   H         1 RES1   0.0000
    22 H       -1.5280  -3.1195   0.5386   H         1 RES1   0.0000
@<TRIPOS>BOND
     1     1     2    1
     2     1    14    1
     3     1    21    1
     4     2     3    2
     5     2     5    1
     6     3    22    1
     7     4     5   ar
     8     4    13   ar
     9     5     6   ar
    10     6     7   ar
    11     6    15    1
    12     7     8   ar
    13     7    16    1
    14     8     9   ar
    15     8    13   ar
    16     9    10   ar
    17     9    17    1
    18    10    11   ar
    19    10    18    1
    20    11    12   ar
    21    11    19    1
    22    12    13   ar
    23    12    20    1
@<TRIPOS>SUBSTRUCTURE
     1 RES1        1 GROUP             0 ****  ****    0  
