@<TRIPOS>MOLECULE
N  0.201410  -3.021318  -0.177739
    17    17     1     0     0
SMALL
NO_CHARGES
****
Generated from the CSD

@<TRIPOS>ATOM
     1 N        0.2014  -3.0213  -0.1777   N.pl3     1 RES1   0.0000
     2 C        0.5098  -1.7017   0.0354   C.2       1 RES1   0.0000
     3 N        1.6868  -1.2714   0.3293   N.2       1 RES1   0.0000
     4 N       -0.2853   0.5614  -0.2432   N.ar      1 RES1   0.0000
     5 C       -1.2668   1.4603  -0.2566   C.ar      1 RES1   0.0000
     6 C       -2.6027   1.1477  -0.0260   C.ar      1 RES1   0.0000
     7 C       -2.9280  -0.1737   0.2418   C.ar      1 RES1   0.0000
     8 C       -1.9140  -1.1229   0.2667   C.ar      1 RES1   0.0000
     9 C       -0.6053  -0.7126   0.0155   C.ar      1 RES1   0.0000
    10 H        1.0050  -3.6174  -0.3332   H         1 RES1   0.0000
    11 H       -0.9737   2.4861  -0.4688   H         1 RES1   0.0000
    12 H       -3.3596   1.9238  -0.0565   H         1 RES1   0.0000
    13 H       -3.9552  -0.4660   0.4357   H         1 RES1   0.0000
    14 H       -2.1332  -2.1598   0.4938   H         1 RES1   0.0000
    15 H       -0.5699  -3.2081  -0.8063   H         1 RES1   0.0000
    16 O        2.6023  -2.3474   0.3016   O.3       1 RES1   0.0000
    17 H        3.4470  -1.9122   0.4938   H         1 RES1   0.0000
@<TRIPOS>BOND
     1     1     2    1
     2     1    10    1
     3     1    15    1
     4     2     3    2
     5     2     9    1
     6     3    16    1
     7     4     5   ar
     8     4     9   ar
     9     5     6   ar
    10     5    11    1
    11     6     7   ar
    12     6    12    1
    13     7     8   ar
    14     7    13    1
    15     8     9   ar
    16     8    14    1
    17    16    17    1
@<TRIPOS>SUBSTRUCTURE
     1 RES1        1 GROUP             0 ****  ****    0  
