@<TRIPOS>MOLECULE
N  -0.680560  1.251392  0.425607
    26    27     1     0     0
SMALL
NO_CHARGES
****
Generated from the CSD

@<TRIPOS>ATOM
     1 N       -0.6806   1.2514   0.4256   N.ar      1 RES1   0.0000
     2 C       -0.6413   2.5801   0.5331   C.ar      1 RES1   0.0000
     3 C       -1.7243   3.4095   0.2836   C.ar      1 RES1   0.0000
     4 C       -2.9356   2.8412  -0.1095   C.ar      1 RES1   0.0000
     5 C       -2.9781   1.4545  -0.2213   C.ar      1 RES1   0.0000
     6 C       -1.8403   0.6945   0.0564   C.ar      1 RES1   0.0000
     7 C       -1.8689  -0.7947  -0.0556   C.ar      1 RES1   0.0000
     8 C       -3.0353  -1.5103   0.2215   C.ar      1 RES1   0.0000
     9 C       -3.0463  -2.8975   0.1097   C.ar      1 RES1   0.0000
    10 C       -1.8575  -3.5121  -0.2830   C.ar      1 RES1   0.0000
    11 C       -0.7432  -2.7251  -0.5318   C.ar      1 RES1   0.0000
    12 N       -0.7313  -1.3958  -0.4242   N.ar      1 RES1   0.0000
    13 H        0.3114   3.0076   0.8393   H         1 RES1   0.0000
    14 H       -1.6227   4.4852   0.3905   H         1 RES1   0.0000
    15 C       -4.1364   3.6932  -0.4052   C.3       1 RES1   0.0000
    16 H       -3.9312  -0.9903   0.5436   H         1 RES1   0.0000
    17 C       -4.2788  -3.7029   0.4052   C.3       1 RES1   0.0000
    18 H       -1.7975  -4.5909  -0.3899   H         1 RES1   0.0000
    19 H        0.1925  -3.1889  -0.8376   H         1 RES1   0.0000
    20 H       -5.1152  -3.0621   0.6950   H         1 RES1   0.0000
    21 H       -4.0936  -4.4144   1.2170   H         1 RES1   0.0000
    22 H       -4.5805  -4.2861  -0.4714   H         1 RES1   0.0000
    23 H       -4.9951   3.0852  -0.7004   H         1 RES1   0.0000
    24 H       -3.9223   4.4010  -1.2131   H         1 RES1   0.0000
    25 H       -4.4190   4.2833   0.4731   H         1 RES1   0.0000
    26 H       -3.8932   0.9695  -0.5439   H         1 RES1   0.0000
@<TRIPOS>BOND
     1     1     2   ar
     2     1     6   ar
     3     2     3   ar
     4     2    13    1
     5     3     4   ar
     6     3    14    1
     7     4     5   ar
     8     4    15    1
     9     5     6   ar
    10     5    26    1
    11     6     7    1
    12     7     8   ar
    13     7    12   ar
    14     8     9   ar
    15     8    16    1
    16     9    10   ar
    17     9    17    1
    18    10    11   ar
    19    10    18    1
    20    11    12   ar
    21    11    19    1
    22    15    23    1
    23    15    24    1
    24    15    25    1
    25    17    20    1
    26    17    21    1
    27    17    22    1
@<TRIPOS>SUBSTRUCTURE
     1 RES1        1 GROUP             0 ****  ****    0  
