@<TRIPOS>MOLECULE
N  -1.285708  1.827326  -0.021432
    22    24     1     0     0
SMALL
NO_CHARGES
****
Generated from the CSD

@<TRIPOS>ATOM
     1 N       -1.2857   1.8273  -0.0214   N.ar      1 RES1   0.0000
     2 C       -2.6042   1.8517  -0.0440   C.ar      1 RES1   0.0000
     3 C       -3.4092   0.7006  -0.0579   C.ar      1 RES1   0.0000
     4 C       -2.7915  -0.5252  -0.0474   C.ar      1 RES1   0.0000
     5 C       -1.3848  -0.5913  -0.0233   C.ar      1 RES1   0.0000
     6 C       -0.6856  -1.8441  -0.0115   C.ar      1 RES1   0.0000
     7 C        0.6661  -1.8821   0.0116   C.ar      1 RES1   0.0000
     8 C        1.4348  -0.6707   0.0249   C.ar      1 RES1   0.0000
     9 C        2.8429  -0.6839   0.0490   C.ar      1 RES1   0.0000
    10 C        3.5286   0.5052   0.0609   C.ar      1 RES1   0.0000
    11 C        2.7897   1.6997   0.0483   C.ar      1 RES1   0.0000
    12 N        1.4719   1.7497   0.0258   N.ar      1 RES1   0.0000
    13 C        0.7875   0.5851   0.0140   C.ar      1 RES1   0.0000
    14 C       -0.6679   0.6260  -0.0110   C.ar      1 RES1   0.0000
    15 H       -3.0702   2.8352  -0.0519   H         1 RES1   0.0000
    16 H       -4.4896   0.7925  -0.0764   H         1 RES1   0.0000
    17 H       -1.2705  -2.7591  -0.0216   H         1 RES1   0.0000
    18 H        1.1985  -2.8287   0.0207   H         1 RES1   0.0000
    19 H        4.6125   0.5360   0.0794   H         1 RES1   0.0000
    20 H        3.3105   2.6553   0.0573   H         1 RES1   0.0000
    21 H       -3.3672  -1.4463  -0.0573   H         1 RES1   0.0000
    22 H        3.3660  -1.6360   0.0579   H         1 RES1   0.0000
@<TRIPOS>BOND
     1     1     2   ar
     2     1    14   ar
     3     2     3   ar
     4     2    15    1
     5     3     4   ar
     6     3    16    1
     7     4     5   ar
     8     4    21    1
     9     5     6   ar
    10     5    14   ar
    11     6     7   ar
    12     6    17    1
    13     7     8   ar
    14     7    18    1
    15     8     9   ar
    16     8    13   ar
    17     9    10   ar
    18     9    22    1
    19    10    11   ar
    20    10    19    1
    21    11    12   ar
    22    11    20    1
    23    12    13   ar
    24    13    14   ar
@<TRIPOS>SUBSTRUCTURE
     1 RES1        1 GROUP             0 ****  ****    0  
