@<TRIPOS>MOLECULE
N  -1.355324  1.931383  -0.022862
    28    30     1     0     0
SMALL
NO_CHARGES
****
Generated from the CSD

@<TRIPOS>ATOM
     1 N       -1.3553   1.9314  -0.0229   N.ar      1 RES1   0.0000
     2 C       -2.6722   1.9355  -0.0452   C.ar      1 RES1   0.0000
     3 C       -3.4606   0.7758  -0.0584   C.ar      1 RES1   0.0000
     4 C       -2.8541  -0.4601  -0.0480   C.ar      1 RES1   0.0000
     5 C       -1.4335  -0.4914  -0.0240   C.ar      1 RES1   0.0000
     6 C       -0.6972  -1.7207  -0.0114   C.ar      1 RES1   0.0000
     7 C        0.6561  -1.7330   0.0115   C.ar      1 RES1   0.0000
     8 C        1.4192  -0.5167   0.0243   C.ar      1 RES1   0.0000
     9 C        2.8403  -0.4928   0.0482   C.ar      1 RES1   0.0000
    10 C        3.4542   0.7429   0.0586   C.ar      1 RES1   0.0000
    11 C        2.6804   1.9072   0.0455   C.ar      1 RES1   0.0000
    12 N        1.3621   1.9127   0.0232   N.ar      1 RES1   0.0000
    13 C        0.7286   0.7212   0.0125   C.ar      1 RES1   0.0000
    14 C       -0.7302   0.7322  -0.0122   C.ar      1 RES1   0.0000
    15 H       -3.1551   2.9112  -0.0534   H         1 RES1   0.0000
    16 H       -4.5424   0.8610  -0.0767   H         1 RES1   0.0000
    17 H       -1.2407  -2.6587  -0.0204   H         1 RES1   0.0000
    18 H        1.1715  -2.6853   0.0204   H         1 RES1   0.0000
    19 H        4.5372   0.8178   0.0769   H         1 RES1   0.0000
    20 H        3.1705   2.8793   0.0538   H         1 RES1   0.0000
    21 C       -3.6656  -1.7232  -0.0616   C.3       1 RES1   0.0000
    22 C        3.6998  -1.7284   0.0627   C.3       1 RES1   0.0000
    23 H       -4.7337  -1.4944  -0.0797   H         1 RES1   0.0000
    24 H       -3.4630  -2.3362   0.8231   H         1 RES1   0.0000
    25 H       -3.4332  -2.3363  -0.9390   H         1 RES1   0.0000
    26 H        3.1352  -2.6593   0.0525   H         1 RES1   0.0000
    27 H        4.3355  -1.7328   0.9542   H         1 RES1   0.0000
    28 H        4.3662  -1.7321  -0.8060   H         1 RES1   0.0000
@<TRIPOS>BOND
     1     1     2   ar
     2     1    14   ar
     3     2     3   ar
     4     2    15    1
     5     3     4   ar
     6     3    16    1
     7     4     5   ar
     8     4    21    1
     9     5     6   ar
    10     5    14   ar
    11     6     7   ar
    12     6    17    1
    13     7     8   ar
    14     7    18    1
    15     8     9   ar
    16     8    13   ar
    17     9    10   ar
    18     9    22    1
    19    10    11   ar
    20    10    19    1
    21    11    12   ar
    22    11    20    1
    23    12    13   ar
    24    13    14   ar
    25    21    23    1
    26    21    24    1
    27    21    25    1
    28    22    26    1
    29    22    27    1
    30    22    28    1
@<TRIPOS>SUBSTRUCTURE
     1 RES1        1 GROUP             0 ****  ****    0  
