@<TRIPOS>MOLECULE
N  -1.299297  1.859975  0.076418
    42    46     1     0     0
SMALL
NO_CHARGES
****
Generated from the CSD

@<TRIPOS>ATOM
     1 N       -1.2993   1.8600   0.0764   N.ar      1 RES1   0.0000
     2 C       -2.6156   1.8778   0.1209   C.ar      1 RES1   0.0000
     3 C       -3.4130   0.7272   0.0856   C.ar      1 RES1   0.0000
     4 C       -2.8161  -0.5144   0.0060   C.ar      1 RES1   0.0000
     5 C       -3.6697  -1.7301  -0.0657   C.ar      1 RES1   0.0000
     6 C       -3.5392  -2.6495  -1.1117   C.ar      1 RES1   0.0000
     7 C       -4.3796  -3.7541  -1.1898   C.ar      1 RES1   0.0000
     8 C       -5.3598  -3.9581  -0.2234   C.ar      1 RES1   0.0000
     9 C       -5.5001  -3.0472   0.8187   C.ar      1 RES1   0.0000
    10 C       -4.6642  -1.9389   0.8944   C.ar      1 RES1   0.0000
    11 C       -1.3937  -0.5644  -0.0030   C.ar      1 RES1   0.0000
    12 C       -0.6548  -1.7941  -0.0044   C.ar      1 RES1   0.0000
    13 C        0.6984  -1.8066   0.0038   C.ar      1 RES1   0.0000
    14 C        1.4599  -0.5907   0.0039   C.ar      1 RES1   0.0000
    15 C        2.8830  -0.5671  -0.0048   C.ar      1 RES1   0.0000
    16 C        3.7140  -1.7984   0.0657   C.ar      1 RES1   0.0000
    17 C        3.5662  -2.7165   1.1105   C.ar      1 RES1   0.0000
    18 C        4.3861  -3.8365   1.1873   C.ar      1 RES1   0.0000
    19 C        5.3627  -4.0574   0.2210   C.ar      1 RES1   0.0000
    20 C        5.5200  -3.1479  -0.8199   C.ar      1 RES1   0.0000
    21 C        4.7048  -2.0243  -0.8945   C.ar      1 RES1   0.0000
    22 C        3.5027   0.6634  -0.0829   C.ar      1 RES1   0.0000
    23 C        2.7268   1.8286  -0.1169   C.ar      1 RES1   0.0000
    24 N        1.4103   1.8350  -0.0725   N.ar      1 RES1   0.0000
    25 C        0.7738   0.6454  -0.0165   C.ar      1 RES1   0.0000
    26 C       -0.6849   0.6589   0.0189   C.ar      1 RES1   0.0000
    27 H       -3.0883   2.8565   0.1764   H         1 RES1   0.0000
    28 H       -4.4935   0.8207   0.0965   H         1 RES1   0.0000
    29 H       -2.7870  -2.4901  -1.8782   H         1 RES1   0.0000
    30 H       -4.2701  -4.4548  -2.0119   H         1 RES1   0.0000
    31 H       -6.0138  -4.8228  -0.2839   H         1 RES1   0.0000
    32 H       -6.2624  -3.1984   1.5770   H         1 RES1   0.0000
    33 H       -4.7742  -1.2321   1.7114   H         1 RES1   0.0000
    34 H       -1.1964  -2.7319  -0.0010   H         1 RES1   0.0000
    35 H        1.2226  -2.7542  -0.0009   H         1 RES1   0.0000
    36 H        2.8169  -2.5443   1.8769   H         1 RES1   0.0000
    37 H        4.2634  -4.5361   2.0086   H         1 RES1   0.0000
    38 H        6.0005  -4.9341   0.2806   H         1 RES1   0.0000
    39 H        6.2796  -3.3122  -1.5782   H         1 RES1   0.0000
    40 H        4.8281  -1.3186  -1.7105   H         1 RES1   0.0000
    41 H        4.5848   0.7369  -0.0935   H         1 RES1   0.0000
    42 H        3.2174   2.7984  -0.1713   H         1 RES1   0.0000
@<TRIPOS>BOND
     1     1     2   ar
     2     1    26   ar
     3     2     3   ar
     4     2    27    1
     5     3     4   ar
     6     3    28    1
     7     4     5    1
     8     4    11   ar
     9     5     6   ar
    10     5    10   ar
    11     6     7   ar
    12     6    29    1
    13     7     8   ar
    14     7    30    1
    15     8     9   ar
    16     8    31    1
    17     9    10   ar
    18     9    32    1
    19    10    33    1
    20    11    12   ar
    21    11    26   ar
    22    12    13   ar
    23    12    34    1
    24    13    14   ar
    25    13    35    1
    26    14    15   ar
    27    14    25   ar
    28    15    16    1
    29    15    22   ar
    30    16    17   ar
    31    16    21   ar
    32    17    18   ar
    33    17    36    1
    34    18    19   ar
    35    18    37    1
    36    19    20   ar
    37    19    38    1
    38    20    21   ar
    39    20    39    1
    40    21    40    1
    41    22    23   ar
    42    22    41    1
    43    23    24   ar
    44    23    42    1
    45    24    25   ar
    46    25    26   ar
@<TRIPOS>SUBSTRUCTURE
     1 RES1        1 GROUP             0 ****  ****    0  
