@<TRIPOS>MOLECULE
N  -1.335943  1.962114  -0.023084
    30    32     1     0     0
SMALL
NO_CHARGES
****
Generated from the CSD

@<TRIPOS>ATOM
     1 N       -1.3359   1.9621  -0.0231   N.ar      1 RES1   0.0000
     2 C       -2.6527   1.9644  -0.0456   C.ar      1 RES1   0.0000
     3 C       -3.4610   0.8187  -0.0589   C.ar      1 RES1   0.0000
     4 C       -2.8356  -0.4104  -0.0477   C.ar      1 RES1   0.0000
     5 C       -1.4141  -0.4567  -0.0234   C.ar      1 RES1   0.0000
     6 C       -0.6988  -1.6911  -0.0108   C.ar      1 RES1   0.0000
     7 C        0.6545  -1.7152   0.0122   C.ar      1 RES1   0.0000
     8 C        1.4356  -0.5069   0.0249   C.ar      1 RES1   0.0000
     9 C        2.8627  -0.4427   0.0490   C.ar      1 RES1   0.0000
    10 C        3.4656   0.8062   0.0594   C.ar      1 RES1   0.0000
    11 C        2.6820   1.9519   0.0461   C.ar      1 RES1   0.0000
    12 N        1.3614   1.9416   0.0234   N.ar      1 RES1   0.0000
    13 C        0.7483   0.7424   0.0130   C.ar      1 RES1   0.0000
    14 C       -0.7130   0.7595  -0.0119   C.ar      1 RES1   0.0000
    15 H       -3.1343   2.9407  -0.0542   H         1 RES1   0.0000
    16 H       -4.5380   0.9221  -0.0773   H         1 RES1   0.0000
    17 H       -1.2579  -2.6189  -0.0198   H         1 RES1   0.0000
    18 H        1.1365  -2.6778   0.0208   H         1 RES1   0.0000
    19 H        4.5475   0.8672   0.0777   H         1 RES1   0.0000
    20 H        3.1624   2.9285   0.0543   H         1 RES1   0.0000
    21 O       -3.4626  -1.5967  -0.0579   O.3       1 RES1   0.0000
    22 O        3.7566  -1.4490   0.0640   O.3       1 RES1   0.0000
    23 C       -4.8870  -1.6053  -0.0821   C.3       1 RES1   0.0000
    24 C        3.4694  -2.8420   0.0575   C.3       1 RES1   0.0000
    25 H        4.4460  -3.3282   0.0730   H         1 RES1   0.0000
    26 H        2.9422  -3.1427  -0.8514   H         1 RES1   0.0000
    27 H        2.9125  -3.1450   0.9478   H         1 RES1   0.0000
    28 H       -5.1783  -2.6555  -0.0866   H         1 RES1   0.0000
    29 H       -5.2676  -1.1162  -0.9842   H         1 RES1   0.0000
    30 H       -5.2981  -1.1154   0.8059   H         1 RES1   0.0000
@<TRIPOS>BOND
     1     1     2   ar
     2     1    14   ar
     3     2     3   ar
     4     2    15    1
     5     3     4   ar
     6     3    16    1
     7     4     5   ar
     8     4    21    1
     9     5     6   ar
    10     5    14   ar
    11     6     7   ar
    12     6    17    1
    13     7     8   ar
    14     7    18    1
    15     8     9   ar
    16     8    13   ar
    17     9    10   ar
    18     9    22    1
    19    10    11   ar
    20    10    19    1
    21    11    12   ar
    22    11    20    1
    23    12    13   ar
    24    13    14   ar
    25    21    23    1
    26    22    24    1
    27    23    28    1
    28    23    29    1
    29    23    30    1
    30    24    25    1
    31    24    26    1
    32    24    27    1
@<TRIPOS>SUBSTRUCTURE
     1 RES1        1 GROUP             0 ****  ****    0  
