@<TRIPOS>MOLECULE
N  -1.347175  2.015452  -0.022692
    34    36     1     0     0
SMALL
NO_CHARGES
****
Generated from the CSD

@<TRIPOS>ATOM
     1 N       -1.3472   2.0155  -0.0227   N.ar      1 RES1   0.0000
     2 C       -2.6591   2.0220  -0.0450   C.ar      1 RES1   0.0000
     3 C       -3.4910   0.8798  -0.0590   C.ar      1 RES1   0.0000
     4 C       -2.8754  -0.3605  -0.0485   C.ar      1 RES1   0.0000
     5 C       -1.4493  -0.3958  -0.0242   C.ar      1 RES1   0.0000
     6 C       -0.7180  -1.6296  -0.0117   C.ar      1 RES1   0.0000
     7 C        0.6359  -1.6542   0.0113   C.ar      1 RES1   0.0000
     8 C        1.4135  -0.4473   0.0244   C.ar      1 RES1   0.0000
     9 C        2.8349  -0.4366   0.0485   C.ar      1 RES1   0.0000
    10 C        3.4806   0.7920   0.0595   C.ar      1 RES1   0.0000
    11 C        2.6912   1.9539   0.0461   C.ar      1 RES1   0.0000
    12 N        1.3752   1.9744   0.0237   N.ar      1 RES1   0.0000
    13 C        0.7281   0.7910   0.0127   C.ar      1 RES1   0.0000
    14 C       -0.7282   0.8127  -0.0121   C.ar      1 RES1   0.0000
    15 H       -3.1347   3.0031  -0.0532   H         1 RES1   0.0000
    16 C       -4.9766   1.1265  -0.0843   C.3       1 RES1   0.0000
    17 H       -1.2622  -2.5663  -0.0209   H         1 RES1   0.0000
    18 H        1.1373  -2.6138   0.0199   H         1 RES1   0.0000
    19 C        4.9775   0.9088   0.0849   C.3       1 RES1   0.0000
    20 H        3.1894   2.9231   0.0546   H         1 RES1   0.0000
    21 C       -3.6329  -1.6609  -0.0613   C.3       1 RES1   0.0000
    22 C        3.6644  -1.6904   0.0625   C.3       1 RES1   0.0000
    23 H       -4.7116  -1.5144  -0.0796   H         1 RES1   0.0000
    24 H       -3.3948  -2.2605   0.8237   H         1 RES1   0.0000
    25 H       -3.3649  -2.2606  -0.9375   H         1 RES1   0.0000
    26 H       -5.5692   0.2126  -0.0944   H         1 RES1   0.0000
    27 H       -5.2523   1.7105  -0.9693   H         1 RES1   0.0000
    28 H       -5.2823   1.7105   0.7908   H         1 RES1   0.0000
    29 H        3.0752  -2.6056   0.0521   H         1 RES1   0.0000
    30 H        4.3031  -1.7155   0.9525   H         1 RES1   0.0000
    31 H        4.3335  -1.7151  -0.8049   H         1 RES1   0.0000
    32 H        5.2852   1.9578   0.0902   H         1 RES1   0.0000
    33 H        5.4338   0.4278  -0.7878   H         1 RES1   0.0000
    34 H        5.4040   0.4276   0.9724   H         1 RES1   0.0000
@<TRIPOS>BOND
     1     1     2   ar
     2     1    14   ar
     3     2     3   ar
     4     2    15    1
     5     3     4   ar
     6     3    16    1
     7     4     5   ar
     8     4    21    1
     9     5     6   ar
    10     5    14   ar
    11     6     7   ar
    12     6    17    1
    13     7     8   ar
    14     7    18    1
    15     8     9   ar
    16     8    13   ar
    17     9    10   ar
    18     9    22    1
    19    10    11   ar
    20    10    19    1
    21    11    12   ar
    22    11    20    1
    23    12    13   ar
    24    13    14   ar
    25    16    26    1
    26    16    27    1
    27    16    28    1
    28    19    32    1
    29    19    33    1
    30    19    34    1
    31    21    23    1
    32    21    24    1
    33    21    25    1
    34    22    29    1
    35    22    30    1
    36    22    31    1
@<TRIPOS>SUBSTRUCTURE
     1 RES1        1 GROUP             0 ****  ****    0  
