@<TRIPOS>MOLECULE
N  -1.347079  1.705168  -0.022233
    28    30     1     0     0
SMALL
NO_CHARGES
****
Generated from the CSD

@<TRIPOS>ATOM
     1 N       -1.3471   1.7052  -0.0222   N.ar      1 RES1   0.0000
     2 C       -2.6696   1.7293  -0.0448   C.ar      1 RES1   0.0000
     3 C       -3.4433   0.5492  -0.0583   C.ar      1 RES1   0.0000
     4 C       -2.8070  -0.6654  -0.0476   C.ar      1 RES1   0.0000
     5 C       -1.4000  -0.7145  -0.0236   C.ar      1 RES1   0.0000
     6 C       -0.6809  -1.9544  -0.0115   C.ar      1 RES1   0.0000
     7 C        0.6723  -1.9671   0.0116   C.ar      1 RES1   0.0000
     8 C        1.4150  -0.7412   0.0245   C.ar      1 RES1   0.0000
     9 C        2.8250  -0.7199   0.0487   C.ar      1 RES1   0.0000
    10 C        3.4833   0.4804   0.0601   C.ar      1 RES1   0.0000
    11 C        2.7318   1.6776   0.0475   C.ar      1 RES1   0.0000
    12 N        1.4112   1.6803   0.0250   N.ar      1 RES1   0.0000
    13 C        0.7480   0.5015   0.0134   C.ar      1 RES1   0.0000
    14 C       -0.7077   0.5166  -0.0115   C.ar      1 RES1   0.0000
    15 C       -3.3241   3.0829  -0.0558   C.3       1 RES1   0.0000
    16 H       -4.5259   0.6146  -0.0768   H         1 RES1   0.0000
    17 H       -1.2491  -2.8800  -0.0214   H         1 RES1   0.0000
    18 H        1.2229  -2.9033   0.0208   H         1 RES1   0.0000
    19 H        4.5675   0.5262   0.0787   H         1 RES1   0.0000
    20 C        3.4343   3.0057   0.0598   C.3       1 RES1   0.0000
    21 H       -3.3724  -1.5932  -0.0575   H         1 RES1   0.0000
    22 H        3.3717  -1.6588   0.0578   H         1 RES1   0.0000
    23 H        2.7056   3.8186   0.0474   H         1 RES1   0.0000
    24 H        4.0925   3.1080  -0.8101   H         1 RES1   0.0000
    25 H        4.0623   3.1077   0.9518   H         1 RES1   0.0000
    26 H       -4.4135   3.0039  -0.0744   H         1 RES1   0.0000
    27 H       -3.0016   3.6559  -0.9315   H         1 RES1   0.0000
    28 H       -3.0317   3.6556   0.8306   H         1 RES1   0.0000
@<TRIPOS>BOND
     1     1     2   ar
     2     1    14   ar
     3     2     3   ar
     4     2    15    1
     5     3     4   ar
     6     3    16    1
     7     4     5   ar
     8     4    21    1
     9     5     6   ar
    10     5    14   ar
    11     6     7   ar
    12     6    17    1
    13     7     8   ar
    14     7    18    1
    15     8     9   ar
    16     8    13   ar
    17     9    10   ar
    18     9    22    1
    19    10    11   ar
    20    10    19    1
    21    11    12   ar
    22    11    20    1
    23    12    13   ar
    24    13    14   ar
    25    15    26    1
    26    15    27    1
    27    15    28    1
    28    20    23    1
    29    20    24    1
    30    20    25    1
@<TRIPOS>SUBSTRUCTURE
     1 RES1        1 GROUP             0 ****  ****    0  
