@<TRIPOS>MOLECULE
N  -1.372680  0.552337  -0.035481
    42    46     1     0     0
SMALL
NO_CHARGES
****
Generated from the CSD

@<TRIPOS>ATOM
     1 N       -1.3727   0.5523  -0.0355   N.ar      1 RES1   0.0000
     2 C       -2.6967   0.5293  -0.0504   C.ar      1 RES1   0.0000
     3 C       -3.3432  -0.8095   0.0129   C.ar      1 RES1   0.0000
     4 C       -4.6532  -1.0140  -0.4313   C.ar      1 RES1   0.0000
     5 C       -5.2342  -2.2755  -0.3672   C.ar      1 RES1   0.0000
     6 C       -4.5169  -3.3523   0.1430   C.ar      1 RES1   0.0000
     7 C       -3.2104  -3.1601   0.5843   C.ar      1 RES1   0.0000
     8 C       -2.6283  -1.9015   0.5168   C.ar      1 RES1   0.0000
     9 C       -3.4613   1.7169  -0.1113   C.ar      1 RES1   0.0000
    10 C       -2.8131   2.9230  -0.1738   C.ar      1 RES1   0.0000
    11 C       -1.4056   2.9647  -0.1707   C.ar      1 RES1   0.0000
    12 C       -0.6751   4.1962  -0.2370   C.ar      1 RES1   0.0000
    13 C        0.6788   4.1977  -0.2272   C.ar      1 RES1   0.0000
    14 C        1.4109   2.9680  -0.1462   C.ar      1 RES1   0.0000
    15 C        2.8184   2.9287  -0.1383   C.ar      1 RES1   0.0000
    16 C        3.4681   1.7247  -0.0565   C.ar      1 RES1   0.0000
    17 C        2.7051   0.5373   0.0249   C.ar      1 RES1   0.0000
    18 C        3.3533  -0.7986   0.1218   C.ar      1 RES1   0.0000
    19 C        2.6402  -1.9439  -0.2490   C.ar      1 RES1   0.0000
    20 C        3.2240  -3.2007  -0.1660   C.ar      1 RES1   0.0000
    21 C        4.5305  -3.3372   0.2957   C.ar      1 RES1   0.0000
    22 C        5.2459  -2.2064   0.6747   C.ar      1 RES1   0.0000
    23 C        4.6632  -0.9470   0.5879   C.ar      1 RES1   0.0000
    24 N        1.3810   0.5567   0.0075   N.ar      1 RES1   0.0000
    25 C        0.7319   1.7326  -0.0770   C.ar      1 RES1   0.0000
    26 C       -0.7250   1.7308  -0.0920   C.ar      1 RES1   0.0000
    27 H       -5.2231  -0.1924  -0.8517   H         1 RES1   0.0000
    28 H       -6.2501  -2.4165  -0.7239   H         1 RES1   0.0000
    29 H       -4.9719  -4.3369   0.1942   H         1 RES1   0.0000
    30 H       -2.6423  -3.9947   0.9845   H         1 RES1   0.0000
    31 H       -1.6100  -1.7490   0.8564   H         1 RES1   0.0000
    32 H       -4.5437   1.6793  -0.0901   H         1 RES1   0.0000
    33 H       -3.3737   3.8523  -0.2183   H         1 RES1   0.0000
    34 H       -1.2349   5.1249  -0.2962   H         1 RES1   0.0000
    35 H        1.2374   5.1275  -0.2792   H         1 RES1   0.0000
    36 H        3.3778   3.8574  -0.2051   H         1 RES1   0.0000
    37 H        4.5506   1.6861  -0.0732   H         1 RES1   0.0000
    38 H        1.6219  -1.8342  -0.6049   H         1 RES1   0.0000
    39 H        2.6573  -4.0777  -0.4643   H         1 RES1   0.0000
    40 H        4.9868  -4.3203   0.3623   H         1 RES1   0.0000
    41 H        6.2617  -2.3026   1.0462   H         1 RES1   0.0000
    42 H        5.2317  -0.0803   0.9079   H         1 RES1   0.0000
@<TRIPOS>BOND
     1     1     2   ar
     2     1    26   ar
     3     2     3    1
     4     2     9   ar
     5     3     4   ar
     6     3     8   ar
     7     4     5   ar
     8     4    27    1
     9     5     6   ar
    10     5    28    1
    11     6     7   ar
    12     6    29    1
    13     7     8   ar
    14     7    30    1
    15     8    31    1
    16     9    10   ar
    17     9    32    1
    18    10    11   ar
    19    10    33    1
    20    11    12   ar
    21    11    26   ar
    22    12    13   ar
    23    12    34    1
    24    13    14   ar
    25    13    35    1
    26    14    15   ar
    27    14    25   ar
    28    15    16   ar
    29    15    36    1
    30    16    17   ar
    31    16    37    1
    32    17    18    1
    33    17    24   ar
    34    18    19   ar
    35    18    23   ar
    36    19    20   ar
    37    19    38    1
    38    20    21   ar
    39    20    39    1
    40    21    22   ar
    41    21    40    1
    42    22    23   ar
    43    22    41    1
    44    23    42    1
    45    24    25   ar
    46    25    26   ar
@<TRIPOS>SUBSTRUCTURE
     1 RES1        1 GROUP             0 ****  ****    0  
