@<TRIPOS>MOLECULE
N  -1.329671  1.778542  0.064934
    48    52     1     0     0
SMALL
NO_CHARGES
****
Generated from the CSD

@<TRIPOS>ATOM
     1 N       -1.3297   1.7785   0.0649   N.ar      1 RES1   0.0000
     2 C       -2.6502   1.8135   0.0977   C.ar      1 RES1   0.0000
     3 C       -3.4309   0.6442   0.0535   C.ar      1 RES1   0.0000
     4 C       -2.8304  -0.5946  -0.0184   C.ar      1 RES1   0.0000
     5 C       -3.6830  -1.8110  -0.0964   C.ar      1 RES1   0.0000
     6 C       -3.5429  -2.7306  -1.1410   C.ar      1 RES1   0.0000
     7 C       -4.3808  -3.8366  -1.2257   C.ar      1 RES1   0.0000
     8 C       -5.3685  -4.0423  -0.2672   C.ar      1 RES1   0.0000
     9 C       -5.5182  -3.1314   0.7736   C.ar      1 RES1   0.0000
    10 C       -4.6846  -2.0218   0.8559   C.ar      1 RES1   0.0000
    11 C       -1.4087  -0.6459  -0.0148   C.ar      1 RES1   0.0000
    12 C       -0.6669  -1.8723  -0.0092   C.ar      1 RES1   0.0000
    13 C        0.6870  -1.8776   0.0109   C.ar      1 RES1   0.0000
    14 C        1.4384  -0.6570   0.0166   C.ar      1 RES1   0.0000
    15 C        2.8631  -0.6181   0.0196   C.ar      1 RES1   0.0000
    16 C        3.7039  -1.8430   0.0957   C.ar      1 RES1   0.0000
    17 C        3.5576  -2.7607   1.1411   C.ar      1 RES1   0.0000
    18 C        4.3852  -3.8747   1.2241   C.ar      1 RES1   0.0000
    19 C        5.3684  -4.0902   0.2632   C.ar      1 RES1   0.0000
    20 C        5.5241  -3.1813  -0.7784   C.ar      1 RES1   0.0000
    21 C        4.7008  -2.0639  -0.8591   C.ar      1 RES1   0.0000
    22 C        3.4726   0.6134  -0.0513   C.ar      1 RES1   0.0000
    23 C        2.7004   1.7918  -0.0946   C.ar      1 RES1   0.0000
    24 N        1.3820   1.7690  -0.0619   N.ar      1 RES1   0.0000
    25 C        0.7500   0.5747  -0.0102   C.ar      1 RES1   0.0000
    26 C       -0.7088   0.5821   0.0130   C.ar      1 RES1   0.0000
    27 C       -3.2957   3.1692   0.1710   C.3       1 RES1   0.0000
    28 H       -4.5127   0.7252   0.0523   H         1 RES1   0.0000
    29 H       -2.7846  -2.5703  -1.9012   H         1 RES1   0.0000
    30 H       -4.2636  -4.5373  -2.0469   H         1 RES1   0.0000
    31 H       -6.0205  -4.9080  -0.3328   H         1 RES1   0.0000
    32 H       -6.2862  -3.2839   1.5260   H         1 RES1   0.0000
    33 H       -4.8021  -1.3153   1.6720   H         1 RES1   0.0000
    34 H       -1.2049  -2.8123  -0.0097   H         1 RES1   0.0000
    35 H        1.2176  -2.8218   0.0117   H         1 RES1   0.0000
    36 H        2.8026  -2.5931   1.9030   H         1 RES1   0.0000
    37 H        4.2632  -4.5739   2.0458   H         1 RES1   0.0000
    38 H        6.0123  -4.9621   0.3275   H         1 RES1   0.0000
    39 H        6.2886  -3.3414  -1.5327   H         1 RES1   0.0000
    40 H        4.8228  -1.3588  -1.6759   H         1 RES1   0.0000
    41 H        4.5554   0.6872  -0.0504   H         1 RES1   0.0000
    42 C        3.3787   3.1304  -0.1657   C.3       1 RES1   0.0000
    43 H        2.6349   3.9291  -0.1908   H         1 RES1   0.0000
    44 H        4.0065   3.2036  -1.0606   H         1 RES1   0.0000
    45 H        4.0325   3.2842   0.6999   H         1 RES1   0.0000
    46 H       -4.3856   3.0969   0.1849   H         1 RES1   0.0000
    47 H       -2.9982   3.7807  -0.6871   H         1 RES1   0.0000
    48 H       -2.9709   3.6976   1.0734   H         1 RES1   0.0000
@<TRIPOS>BOND
     1     1     2   ar
     2     1    26   ar
     3     2     3   ar
     4     2    27    1
     5     3     4   ar
     6     3    28    1
     7     4     5    1
     8     4    11   ar
     9     5     6   ar
    10     5    10   ar
    11     6     7   ar
    12     6    29    1
    13     7     8   ar
    14     7    30    1
    15     8     9   ar
    16     8    31    1
    17     9    10   ar
    18     9    32    1
    19    10    33    1
    20    11    12   ar
    21    11    26   ar
    22    12    13   ar
    23    12    34    1
    24    13    14   ar
    25    13    35    1
    26    14    15   ar
    27    14    25   ar
    28    15    16    1
    29    15    22   ar
    30    16    17   ar
    31    16    21   ar
    32    17    18   ar
    33    17    36    1
    34    18    19   ar
    35    18    37    1
    36    19    20   ar
    37    19    38    1
    38    20    21   ar
    39    20    39    1
    40    21    40    1
    41    22    23   ar
    42    22    41    1
    43    23    24   ar
    44    23    42    1
    45    24    25   ar
    46    25    26   ar
    47    27    46    1
    48    27    47    1
    49    27    48    1
    50    42    43    1
    51    42    44    1
    52    42    45    1
@<TRIPOS>SUBSTRUCTURE
     1 RES1        1 GROUP             0 ****  ****    0  
