@<TRIPOS>MOLECULE
N  -0.589004  1.239830  0.531683
    44    45     1     0     0
SMALL
NO_CHARGES
****
Generated from the CSD

@<TRIPOS>ATOM
     1 N       -0.5890   1.2398   0.5317   N.ar      1 RES1   0.0000
     2 C       -0.5702   2.5592   0.7254   C.ar      1 RES1   0.0000
     3 C       -1.6580   3.3903   0.5093   C.ar      1 RES1   0.0000
     4 C       -2.8625   2.8456   0.0556   C.ar      1 RES1   0.0000
     5 C       -2.8789   1.4670  -0.1437   C.ar      1 RES1   0.0000
     6 C       -1.7366   0.7019   0.1059   C.ar      1 RES1   0.0000
     7 C       -1.7513  -0.7773  -0.1054   C.ar      1 RES1   0.0000
     8 C       -2.9080  -1.5198   0.1456   C.ar      1 RES1   0.0000
     9 C       -2.9190  -2.8985  -0.0538   C.ar      1 RES1   0.0000
    10 C       -1.7259  -3.4668  -0.5088   C.ar      1 RES1   0.0000
    11 C       -0.6222  -2.6572  -0.7261   C.ar      1 RES1   0.0000
    12 N       -0.6149  -1.3377  -0.5325   N.ar      1 RES1   0.0000
    13 H        0.3703   2.9785   1.0772   H         1 RES1   0.0000
    14 H       -1.5553   4.4545   0.6923   H         1 RES1   0.0000
    15 C       -4.0732   3.7435  -0.2049   C.3       1 RES1   0.0000
    16 H       -3.7692   0.9750  -0.5128   H         1 RES1   0.0000
    17 H       -3.7881  -1.0105   0.5156   H         1 RES1   0.0000
    18 C       -4.1467  -3.7725   0.2081   C.3       1 RES1   0.0000
    19 H       -1.6443  -4.5327  -0.6920   H         1 RES1   0.0000
    20 H        0.3094  -3.0949  -1.0791   H         1 RES1   0.0000
    21 C       -5.3460  -2.9559   0.6989   C.3       1 RES1   0.0000
    22 C       -3.7991  -4.8218   1.2778   C.3       1 RES1   0.0000
    23 C       -4.5425  -4.4866  -1.0956   C.3       1 RES1   0.0000
    24 C       -5.2889   2.9505  -0.6942   C.3       1 RES1   0.0000
    25 C       -3.7063   4.7857  -1.2751   C.3       1 RES1   0.0000
    26 C       -4.4533   4.4653   1.0992   C.3       1 RES1   0.0000
    27 H       -5.1335  -2.4452   1.6439   H         1 RES1   0.0000
    28 H       -6.1961  -3.6245   0.8679   H         1 RES1   0.0000
    29 H       -5.6560  -2.2044  -0.0347   H         1 RES1   0.0000
    30 H       -3.5115  -4.3434   2.2203   H         1 RES1   0.0000
    31 H       -2.9754  -5.4689   0.9614   H         1 RES1   0.0000
    32 H       -4.6686  -5.4587   1.4731   H         1 RES1   0.0000
    33 H       -5.0874   2.4355  -1.6393   H         1 RES1   0.0000
    34 H       -6.1258   3.6357  -0.8624   H         1 RES1   0.0000
    35 H       -5.6128   2.2055   0.0399   H         1 RES1   0.0000
    36 H       -4.7195   3.7486   1.8836   H         1 RES1   0.0000
    37 H       -5.3178   5.1158   0.9274   H         1 RES1   0.0000
    38 H       -3.6356   5.0887   1.4731   H         1 RES1   0.0000
    39 H       -3.4293   4.3017  -2.2179   H         1 RES1   0.0000
    40 H       -2.8698   5.4165  -0.9598   H         1 RES1   0.0000
    41 H       -4.5634   5.4396  -1.4694   H         1 RES1   0.0000
    42 H       -4.7954  -3.7648  -1.8796   H         1 RES1   0.0000
    43 H       -5.4194  -5.1200  -0.9228   H         1 RES1   0.0000
    44 H       -3.7376  -5.1260  -1.4705   H         1 RES1   0.0000
@<TRIPOS>BOND
     1     1     2   ar
     2     1     6   ar
     3     2     3   ar
     4     2    13    1
     5     3     4   ar
     6     3    14    1
     7     4     5   ar
     8     4    15    1
     9     5     6   ar
    10     5    16    1
    11     6     7    1
    12     7     8   ar
    13     7    12   ar
    14     8     9   ar
    15     8    17    1
    16     9    10   ar
    17     9    18    1
    18    10    11   ar
    19    10    19    1
    20    11    12   ar
    21    11    20    1
    22    15    24    1
    23    15    25    1
    24    15    26    1
    25    18    21    1
    26    18    22    1
    27    18    23    1
    28    21    27    1
    29    21    28    1
    30    21    29    1
    31    22    30    1
    32    22    31    1
    33    22    32    1
    34    23    42    1
    35    23    43    1
    36    23    44    1
    37    24    33    1
    38    24    34    1
    39    24    35    1
    40    25    39    1
    41    25    40    1
    42    25    41    1
    43    26    36    1
    44    26    37    1
    45    26    38    1
@<TRIPOS>SUBSTRUCTURE
     1 RES1        1 GROUP             0 ****  ****    0  
