@<TRIPOS>MOLECULE
N  -0.736018  1.346523  -0.363847
    28    29     1     0     0
SMALL
NO_CHARGES
****
Generated from the CSD

@<TRIPOS>ATOM
     1 N       -0.7360   1.3465  -0.3638   N.ar      1 RES1   0.0000
     2 C       -0.7455   2.6744  -0.4326   C.ar      1 RES1   0.0000
     3 C       -1.8438   3.4776  -0.1479   C.ar      1 RES1   0.0000
     4 C       -3.0213   2.8432   0.2428   C.ar      1 RES1   0.0000
     5 C       -3.0307   1.4480   0.3223   C.ar      1 RES1   0.0000
     6 C       -1.8780   0.7428   0.0070   C.ar      1 RES1   0.0000
     7 C       -1.8583  -0.7500   0.0742   C.ar      1 RES1   0.0000
     8 C       -3.0041  -1.4836  -0.1983   C.ar      1 RES1   0.0000
     9 C       -2.9573  -2.8782  -0.1201   C.ar      1 RES1   0.0000
    10 C       -1.7507  -3.4831   0.2261   C.ar      1 RES1   0.0000
    11 C       -0.6627  -2.6529   0.4700   C.ar      1 RES1   0.0000
    12 N       -0.6887  -1.3252   0.4018   N.ar      1 RES1   0.0000
    13 H        0.1865   3.1450  -0.7394   H         1 RES1   0.0000
    14 H       -1.7628   4.5537  -0.2294   H         1 RES1   0.0000
    15 O       -4.1664   3.4695   0.5622   O.3       1 RES1   0.0000
    16 H       -3.9342   0.9452   0.6460   H         1 RES1   0.0000
    17 H       -3.9313  -1.0034  -0.4878   H         1 RES1   0.0000
    18 O       -4.0978  -3.5327  -0.3965   O.3       1 RES1   0.0000
    19 H       -1.6402  -4.5568   0.3041   H         1 RES1   0.0000
    20 H        0.2914  -3.1001   0.7416   H         1 RES1   0.0000
    21 C       -4.0842  -4.9558  -0.3435   C.3       1 RES1   0.0000
    22 C       -4.1911   4.8923   0.5055   C.3       1 RES1   0.0000
    23 H       -5.1992   5.1847   0.8001   H         1 RES1   0.0000
    24 H       -3.9895   5.2518  -0.5087   H         1 RES1   0.0000
    25 H       -3.4674   5.3287   1.2013   H         1 RES1   0.0000
    26 H       -5.0944  -5.2732  -0.6029   H         1 RES1   0.0000
    27 H       -3.8375  -5.3123   0.6618   H         1 RES1   0.0000
    28 H       -3.3749  -5.3720  -1.0660   H         1 RES1   0.0000
@<TRIPOS>BOND
     1     1     2   ar
     2     1     6   ar
     3     2     3   ar
     4     2    13    1
     5     3     4   ar
     6     3    14    1
     7     4     5   ar
     8     4    15    1
     9     5     6   ar
    10     5    16    1
    11     6     7    1
    12     7     8   ar
    13     7    12   ar
    14     8     9   ar
    15     8    17    1
    16     9    10   ar
    17     9    18    1
    18    10    11   ar
    19    10    19    1
    20    11    12   ar
    21    11    20    1
    22    15    22    1
    23    18    21    1
    24    21    26    1
    25    21    27    1
    26    21    28    1
    27    22    23    1
    28    22    24    1
    29    22    25    1
@<TRIPOS>SUBSTRUCTURE
     1 RES1        1 GROUP             0 ****  ****    0  
