@<TRIPOS>MOLECULE
N  -0.728044  1.247020  0.440319
    24    25     1     0     0
SMALL
NO_CHARGES
****
Generated from the CSD

@<TRIPOS>ATOM
     1 N       -0.7280   1.2470   0.4403   N.ar      1 RES1   0.0000
     2 C       -0.6980   2.5790   0.5292   C.ar      1 RES1   0.0000
     3 C       -1.7574   3.4147   0.2265   C.ar      1 RES1   0.0000
     4 C       -2.9588   2.8422  -0.2153   C.ar      1 RES1   0.0000
     5 C       -3.0011   1.4432  -0.3109   C.ar      1 RES1   0.0000
     6 C       -1.8801   0.6952   0.0271   C.ar      1 RES1   0.0000
     7 C       -1.9142  -0.7980  -0.0629   C.ar      1 RES1   0.0000
     8 C       -3.0875  -1.4904   0.2102   C.ar      1 RES1   0.0000
     9 C       -3.1078  -2.8896   0.1144   C.ar      1 RES1   0.0000
    10 C       -1.9109  -3.5209  -0.2526   C.ar      1 RES1   0.0000
    11 C       -0.7968  -2.7381  -0.4939   C.ar      1 RES1   0.0000
    12 N       -0.7682  -1.4059  -0.4083   N.ar      1 RES1   0.0000
    13 H        0.2395   3.0125   0.8731   H         1 RES1   0.0000
    14 H       -1.6596   4.4914   0.3234   H         1 RES1   0.0000
    15 N       -4.0261   3.6134  -0.5914   N.pl3     1 RES1   0.0000
    16 H       -3.9039   0.9592  -0.6680   H         1 RES1   0.0000
    17 H       -3.9849  -0.9625   0.5156   H         1 RES1   0.0000
    18 N       -4.2581  -3.6019   0.3301   N.pl3     1 RES1   0.0000
    19 H       -1.8590  -4.6015  -0.3404   H         1 RES1   0.0000
    20 H        0.1387  -3.2177  -0.7768   H         1 RES1   0.0000
    21 H       -4.9886  -3.1442   0.8604   H         1 RES1   0.0000
    22 H       -4.1539  -4.5855   0.5449   H         1 RES1   0.0000
    23 H       -4.9330   3.1650  -0.6178   H         1 RES1   0.0000
    24 H       -4.0491   4.5650  -0.2481   H         1 RES1   0.0000
@<TRIPOS>BOND
     1     1     2   ar
     2     1     6   ar
     3     2     3   ar
     4     2    13    1
     5     3     4   ar
     6     3    14    1
     7     4     5   ar
     8     4    15    1
     9     5     6   ar
    10     5    16    1
    11     6     7    1
    12     7     8   ar
    13     7    12   ar
    14     8     9   ar
    15     8    17    1
    16     9    10   ar
    17     9    18    1
    18    10    11   ar
    19    10    19    1
    20    11    12   ar
    21    11    20    1
    22    15    23    1
    23    15    24    1
    24    18    21    1
    25    18    22    1
@<TRIPOS>SUBSTRUCTURE
     1 RES1        1 GROUP             0 ****  ****    0  
