@<TRIPOS>MOLECULE
N  -0.876622  1.256165  0.574767
    22    23     1     0     0
SMALL
NO_CHARGES
****
Generated from the CSD

@<TRIPOS>ATOM
     1 N       -0.8766   1.2562   0.5748   N.ar      1 RES1   0.0000
     2 C       -0.7835   2.5848   0.5939   C.ar      1 RES1   0.0000
     3 C       -1.7224   3.4336   0.0188   C.ar      1 RES1   0.0000
     4 C       -2.8176   2.8613  -0.6124   C.ar      1 RES1   0.0000
     5 C       -2.9302   1.4772  -0.6367   C.ar      1 RES1   0.0000
     6 C       -1.9378   0.7035  -0.0311   C.ar      1 RES1   0.0000
     7 C       -1.9767  -0.7896  -0.0682   C.ar      1 RES1   0.0000
     8 C       -3.1511  -1.5233   0.2067   C.ar      1 RES1   0.0000
     9 C       -3.0661  -2.9191   0.1335   C.ar      1 RES1   0.0000
    10 C       -1.8669  -3.5220  -0.1943   C.ar      1 RES1   0.0000
    11 C       -0.7604  -2.7142  -0.4356   C.ar      1 RES1   0.0000
    12 N       -0.8189  -1.3883  -0.3695   N.ar      1 RES1   0.0000
    13 H        0.0883   2.9961   1.0985   H         1 RES1   0.0000
    14 H       -1.5917   4.5093   0.0662   H         1 RES1   0.0000
    15 H       -3.5735   3.4803  -1.0857   H         1 RES1   0.0000
    16 H       -3.7696   0.9999  -1.1294   H         1 RES1   0.0000
    17 N       -4.3652  -0.9216   0.5062   N.pl3     1 RES1   0.0000
    18 H       -3.9504  -3.5141   0.3452   H         1 RES1   0.0000
    19 H       -1.7852  -4.6023  -0.2542   H         1 RES1   0.0000
    20 H        0.2030  -3.1485  -0.6914   H         1 RES1   0.0000
    21 H       -4.3081  -0.0174   0.9595   H         1 RES1   0.0000
    22 H       -5.0171  -1.5322   0.9862   H         1 RES1   0.0000
@<TRIPOS>BOND
     1     1     2   ar
     2     1     6   ar
     3     2     3   ar
     4     2    13    1
     5     3     4   ar
     6     3    14    1
     7     4     5   ar
     8     4    15    1
     9     5     6   ar
    10     5    16    1
    11     6     7    1
    12     7     8   ar
    13     7    12   ar
    14     8     9   ar
    15     8    17    1
    16     9    10   ar
    17     9    18    1
    18    10    11   ar
    19    10    19    1
    20    11    12   ar
    21    11    20    1
    22    17    21    1
    23    17    22    1
@<TRIPOS>SUBSTRUCTURE
     1 RES1        1 GROUP             0 ****  ****    0  
