@<TRIPOS>MOLECULE
N  -0.809857  1.240035  0.288110
    23    24     1     0     0
SMALL
NO_CHARGES
****
Generated from the CSD

@<TRIPOS>ATOM
     1 N       -0.8099   1.2400   0.2881   N.ar      1 RES1   0.0000
     2 C       -0.7757   2.5713   0.3031   C.ar      1 RES1   0.0000
     3 C       -1.8658   3.3951   0.0258   C.ar      1 RES1   0.0000
     4 C       -3.0624   2.7540  -0.2891   C.ar      1 RES1   0.0000
     5 C       -3.1184   1.3695  -0.3083   C.ar      1 RES1   0.0000
     6 C       -1.9668   0.6381  -0.0100   C.ar      1 RES1   0.0000
     7 C       -1.9753  -0.8538  -0.0183   C.ar      1 RES1   0.0000
     8 C       -3.1227  -1.5682   0.3330   C.ar      1 RES1   0.0000
     9 C       -3.0863  -2.9556   0.3116   C.ar      1 RES1   0.0000
    10 C       -1.9082  -3.5900  -0.0577   C.ar      1 RES1   0.0000
    11 C       -0.8151  -2.7967  -0.3862   C.ar      1 RES1   0.0000
    12 N       -0.8360  -1.4648  -0.3703   N.ar      1 RES1   0.0000
    13 H        0.1835   3.0217   0.5547   H         1 RES1   0.0000
    14 C       -1.7488   4.8917   0.0617   C.3       1 RES1   0.0000
    15 H       -3.9476   3.3381  -0.5264   H         1 RES1   0.0000
    16 H       -4.0404   0.8634  -0.5718   H         1 RES1   0.0000
    17 H       -4.0233  -1.0471   0.6374   H         1 RES1   0.0000
    18 H       -3.9649  -3.5306   0.5874   H         1 RES1   0.0000
    19 H       -1.8305  -4.6713  -0.0885   H         1 RES1   0.0000
    20 H        0.1259  -3.2573  -0.6802   H         1 RES1   0.0000
    21 H       -0.7338   5.2032   0.3227   H         1 RES1   0.0000
    22 H       -2.4358   5.3238   0.7974   H         1 RES1   0.0000
    23 H       -1.9988   5.3304  -0.9104   H         1 RES1   0.0000
@<TRIPOS>BOND
     1     1     2   ar
     2     1     6   ar
     3     2     3   ar
     4     2    13    1
     5     3     4   ar
     6     3    14    1
     7     4     5   ar
     8     4    15    1
     9     5     6   ar
    10     5    16    1
    11     6     7    1
    12     7     8   ar
    13     7    12   ar
    14     8     9   ar
    15     8    17    1
    16     9    10   ar
    17     9    18    1
    18    10    11   ar
    19    10    19    1
    20    11    12   ar
    21    11    20    1
    22    14    21    1
    23    14    22    1
    24    14    23    1
@<TRIPOS>SUBSTRUCTURE
     1 RES1        1 GROUP             0 ****  ****    0  
