@<TRIPOS>MOLECULE
N  -0.821504  1.297409  0.314168
    26    27     1     0     0
SMALL
NO_CHARGES
****
Generated from the CSD

@<TRIPOS>ATOM
     1 N       -0.8215   1.2974   0.3142   N.ar      1 RES1   0.0000
     2 C       -0.7743   2.6285   0.3186   C.ar      1 RES1   0.0000
     3 C       -1.8507   3.4608   0.0154   C.ar      1 RES1   0.0000
     4 C       -3.0477   2.8285  -0.3161   C.ar      1 RES1   0.0000
     5 C       -3.1168   1.4446  -0.3261   C.ar      1 RES1   0.0000
     6 C       -1.9783   0.7036  -0.0008   C.ar      1 RES1   0.0000
     7 C       -2.0017  -0.7875   0.0022   C.ar      1 RES1   0.0000
     8 C       -3.1636  -1.4924   0.3252   C.ar      1 RES1   0.0000
     9 C       -3.1378  -2.8778   0.3152   C.ar      1 RES1   0.0000
    10 C       -1.9606  -3.5474  -0.0139   C.ar      1 RES1   0.0000
    11 C       -0.8581  -2.7493  -0.3150   C.ar      1 RES1   0.0000
    12 N       -0.8635  -1.4174  -0.3105   N.ar      1 RES1   0.0000
    13 H        0.1849   3.0713   0.5837   H         1 RES1   0.0000
    14 C       -1.7201   4.9566   0.0427   C.3       1 RES1   0.0000
    15 H       -3.9227   3.4191  -0.5739   H         1 RES1   0.0000
    16 H       -4.0389   0.9457  -0.6029   H         1 RES1   0.0000
    17 H       -4.0701  -0.9649   0.6002   H         1 RES1   0.0000
    18 H       -4.0316  -3.4407   0.5712   H         1 RES1   0.0000
    19 C       -1.8769  -5.0465  -0.0406   C.3       1 RES1   0.0000
    20 H        0.0872  -3.2219  -0.5784   H         1 RES1   0.0000
    21 H       -0.8712  -5.3819  -0.3082   H         1 RES1   0.0000
    22 H       -2.5793  -5.4684  -0.7676   H         1 RES1   0.0000
    23 H       -2.1280  -5.4734   0.9364   H         1 RES1   0.0000
    24 H       -0.7034   5.2603   0.3066   H         1 RES1   0.0000
    25 H       -2.4061   5.3996   0.7728   H         1 RES1   0.0000
    26 H       -1.9616   5.3918  -0.9331   H         1 RES1   0.0000
@<TRIPOS>BOND
     1     1     2   ar
     2     1     6   ar
     3     2     3   ar
     4     2    13    1
     5     3     4   ar
     6     3    14    1
     7     4     5   ar
     8     4    15    1
     9     5     6   ar
    10     5    16    1
    11     6     7    1
    12     7     8   ar
    13     7    12   ar
    14     8     9   ar
    15     8    17    1
    16     9    10   ar
    17     9    18    1
    18    10    11   ar
    19    10    19    1
    20    11    12   ar
    21    11    20    1
    22    14    24    1
    23    14    25    1
    24    14    26    1
    25    19    21    1
    26    19    22    1
    27    19    23    1
@<TRIPOS>SUBSTRUCTURE
     1 RES1        1 GROUP             0 ****  ****    0  
