@<TRIPOS>MOLECULE
N  -0.896702  1.330844  -0.000004
    26    27     1     0     0
SMALL
NO_CHARGES
****
Generated from the CSD

@<TRIPOS>ATOM
     1 N       -0.8967   1.3308  -0.0000   N.ar      1 RES1   0.0000
     2 C       -0.8152   2.6611   0.0000   C.ar      1 RES1   0.0000
     3 C       -1.9524   3.4741  -0.0000   C.ar      1 RES1   0.0000
     4 C       -3.1969   2.8707  -0.0001   C.ar      1 RES1   0.0000
     5 C       -3.2800   1.4834  -0.0001   C.ar      1 RES1   0.0000
     6 C       -2.1012   0.7390  -0.0001   C.ar      1 RES1   0.0000
     7 C       -2.1129  -0.7600  -0.0001   C.ar      1 RES1   0.0000
     8 C       -3.3037  -1.4854  -0.0004   C.ar      1 RES1   0.0000
     9 C       -3.2428  -2.8738  -0.0004   C.ar      1 RES1   0.0000
    10 C       -2.0077  -3.4972  -0.0002   C.ar      1 RES1   0.0000
    11 C       -0.8579  -2.7026   0.0001   C.ar      1 RES1   0.0000
    12 N       -0.9182  -1.3709   0.0001   N.ar      1 RES1   0.0000
    13 C        0.5612   3.2673   0.0001   C.3       1 RES1   0.0000
    14 H       -1.8500   4.5546   0.0000   H         1 RES1   0.0000
    15 H       -4.1025   3.4696  -0.0001   H         1 RES1   0.0000
    16 H       -4.2526   1.0083  -0.0002   H         1 RES1   0.0000
    17 H       -4.2682  -0.9945  -0.0005   H         1 RES1   0.0000
    18 H       -4.1576  -3.4586  -0.0006   H         1 RES1   0.0000
    19 H       -1.9229  -4.5792  -0.0002   H         1 RES1   0.0000
    20 C        0.5087  -3.3307   0.0003   C.3       1 RES1   0.0000
    21 H        1.2789  -2.5567   0.0004   H         1 RES1   0.0000
    22 H        0.6495  -3.9657  -0.8812   H         1 RES1   0.0000
    23 H        0.6492  -3.9657   0.8818   H         1 RES1   0.0000
    24 H        1.3188   2.4811  -0.0000   H         1 RES1   0.0000
    25 H        0.7119   3.8997   0.8818   H         1 RES1   0.0000
    26 H        0.7118   3.9001  -0.8812   H         1 RES1   0.0000
@<TRIPOS>BOND
     1     1     2   ar
     2     1     6   ar
     3     2     3   ar
     4     2    13    1
     5     3     4   ar
     6     3    14    1
     7     4     5   ar
     8     4    15    1
     9     5     6   ar
    10     5    16    1
    11     6     7    1
    12     7     8   ar
    13     7    12   ar
    14     8     9   ar
    15     8    17    1
    16     9    10   ar
    17     9    18    1
    18    10    11   ar
    19    10    19    1
    20    11    12   ar
    21    11    20    1
    22    13    24    1
    23    13    25    1
    24    13    26    1
    25    20    21    1
    26    20    22    1
    27    20    23    1
@<TRIPOS>SUBSTRUCTURE
     1 RES1        1 GROUP             0 ****  ****    0  
